27
Coordinates from ORCA-job nebrestart_MEP E -1050.832166899237
  C       3.943187     -2.835884      0.574965
  C       4.066936     -1.594178      1.206434
  C       3.109989     -0.615242      0.994181
  C       2.033928     -0.888052      0.152946
  C       2.889499     -3.107849     -0.289819
  C       1.936216     -2.117001     -0.502390
  C       0.899625      0.014998     -0.107135
  C      -0.122533     -0.696392     -0.961058
  H       4.680109     -3.606378      0.766888
  H       4.903262     -1.402701      1.865717
  H       3.171053      0.355414      1.470296
  H       2.806118     -4.074653     -0.769141
  S       0.520686     -2.249160     -1.543657
  O       0.810211      1.164951      0.270783
  C      -1.352138     -0.259519     -1.282850
  C      -2.075629      0.868335     -0.670078
  C      -2.206288      0.950827      0.721215
  H      -1.734857      0.199707      1.341632
  C      -2.943389      1.970081      1.304990
  H      -3.044979      2.011900      2.382880
  C      -3.552792      2.935066      0.509138
  H      -4.121705      3.734444      0.967188
  C      -3.437662      2.860752     -0.874918
  H      -3.912340      3.607536     -1.498965
  C      -2.720131      1.824601     -1.461998
  H      -2.634845      1.772410     -2.541383
  H      -1.911533     -0.824010     -2.025860
