27
Coordinates from ORCA-job nebrestart_MEP E -1050.829762402982
  C       3.986913     -2.727256      0.543394
  C       4.130783     -1.425353      1.033369
  C       3.144994     -0.483281      0.789799
  C       2.017623     -0.851730      0.059066
  C       2.880188     -3.097595     -0.211296
  C       1.900229     -2.142541     -0.460703
  C       0.848019      0.002989     -0.207928
  C      -0.205478     -0.803492     -0.931296
  H       4.749077     -3.465808      0.759910
  H       5.005834     -1.158098      1.610817
  H       3.220523      0.529607      1.165417
  H       2.781898     -4.107888     -0.587197
  S       0.429677     -2.398425     -1.398889
  O       0.735867      1.171661      0.097242
  C      -1.474429     -0.436996     -1.147860
  C      -2.136992      0.770238     -0.591921
  C      -2.613496      0.723998      0.720631
  H      -2.460908     -0.171376      1.310858
  C      -3.268890      1.816065      1.273547
  H      -3.625868      1.765039      2.294624
  C      -3.463301      2.967338      0.520038
  H      -3.967372      3.821497      0.954564
  C      -3.006223      3.015521     -0.792221
  H      -3.155888      3.909139     -1.385517
  C      -2.352308      1.922000     -1.348775
  H      -1.984387      1.973037     -2.365896
  H      -2.116085     -1.118288     -1.703778
