! tightscf engrad pbe def2-TZVP Numfreq 
%pal nprocs 16 end 
 
*xyz 0 1 
C 1.89271128185181 -1.05419179009022 -0.00015272736093
C 2.15707694346286 0.31811646042833 -0.00030782196824
C 1.10924067683468 1.22566974007702 -0.0001400647627
C -0.19891889890503 0.75127710583881 0.00017186009379
C 0.58957575458896 -1.5384667402107 0.00017482613879
C -0.45300469778095 -0.62062033246942 0.00032982445915
C -1.42159804269724 1.57162528314641 0.00030560688562
C -2.63146576071734 0.67714660966465 0.00041807162759
H 2.71689965388642 -1.75645402788804 -0.00029075851018
H 3.18068916415964 0.66848585612276 -0.00056651290326
H 1.28065208115206 2.29479456391421 -0.00027066822822
H 0.39577166877983 -2.60352570546857 0.0002901055403
S -2.17115498595443 -1.022393876218 0.0007097983486
O -1.46797864621618 2.78596786775483 8.98533438e-05
C -3.86428664035018 1.21723215034857 0.00026557882978
C -5.18174179967452 0.6163646966056 0.00023832889518
C -5.42555792459805 -0.76707199588359 0.00015284936299
H -4.60564239171201 -1.46941755605291 8.485227116e-05
C -6.72177832413546 -1.25785713579258 8.293637805e-05
H -6.88727564063513 -2.32797041227394 5.488605e-08
C -7.80659474181924 -0.38676561614245 9.986526815e-05
H -8.81655482347733 -0.77632562453617 4.11194571e-05
C -7.58576379509636 0.9866301817917 0.0001785863264
H -8.42358479100916 1.67201582950035 0.00018186623748
C -6.29135020868369 1.47915387118115 0.00024204400748
H -6.12111008578313 2.54921904732604 0.00028752037267
H -3.84695502547083 2.30445154932615 0.0001130050034
*
