27
Coordinates from ORCA-job nebrestart_MEP E -1050.835114246092
  C       4.127901     -2.693159      0.367905
  C       4.353899     -1.343038      0.653573
  C       3.363673     -0.406120      0.405659
  C       2.140839     -0.832389     -0.108137
  C       2.919453     -3.127684     -0.160953
  C       1.922914     -2.183534     -0.385369
  C       0.978559      0.030907     -0.390834
  C      -0.208507     -0.833433     -0.704082
  H       4.905664     -3.418369      0.573354
  H       5.299668     -1.033317      1.078112
  H       3.509308      0.645873      0.618446
  H       2.752046     -4.176110     -0.372997
  S       0.305975     -2.515505     -0.989145
  O       0.985464      1.247203     -0.346692
  C      -1.523303     -0.548429     -0.585408
  C      -2.214396      0.706609     -0.296464
  C      -3.383952      0.631729      0.480554
  H      -3.727808     -0.334822      0.830750
  C      -4.080354      1.776579      0.834969
  H      -4.960108      1.700172      1.461032
  C      -3.649828      3.019139      0.380540
  H      -4.192831      3.915229      0.653727
  C      -2.521258      3.104000     -0.427873
  H      -2.188993      4.065260     -0.799522
  C      -1.803051      1.963816     -0.758843
  H      -0.918503      2.043619     -1.368680
  H      -2.192471     -1.404225     -0.643622
