27
Coordinates from ORCA-job nebrestart_MEP E -1050.791893891686
  C       3.606574     -3.082071      0.841111
  C       4.037043     -1.818509      1.256875
  C       3.363260     -0.685820      0.827244
  C       2.228621     -0.837864      0.035014
  C       2.438486     -3.244465      0.101233
  C       1.710340     -2.106312     -0.233956
  C       1.491791      0.251172     -0.630837
  C       0.185605     -0.299490     -1.145178
  H       4.181325     -3.957055      1.118174
  H       4.904389     -1.725038      1.896838
  H       3.679791      0.311840      1.107065
  H       2.111296     -4.231112     -0.201185
  S       0.096553     -2.045888     -0.957589
  O       1.805257      1.426516     -0.623013
  C      -0.776599      0.604307     -1.445923
  C      -2.084755      0.911495     -0.849863
  C      -2.035622      0.970280      0.555649
  H      -1.211952      0.491475      1.067656
  C      -2.923198      1.760296      1.269128
  H      -2.790652      1.869666      2.338703
  C      -3.916079      2.465416      0.599916
  H      -4.573032      3.127550      1.148833
  C      -4.036791      2.339645     -0.781840
  H      -4.818949      2.876431     -1.302882
  C      -3.124128      1.582749     -1.507630
  H      -3.193533      1.549163     -2.588778
  H      -0.355043      1.495623     -1.894764
