27
Coordinates from ORCA-job nebrestart_MEP E -1050.819205529115
  C       3.513754     -3.114955      0.939387
  C       4.190701     -1.896834      1.050144
  C       3.637598     -0.752585      0.499155
  C       2.387168     -0.829428     -0.105712
  C       2.243851     -3.192406      0.376501
  C       1.656683     -2.019138     -0.088157
  C       1.699190      0.272506     -0.798420
  C       0.262500     -0.117897     -1.017587
  H       3.981036     -4.016470      1.316461
  H       5.145912     -1.853096      1.555721
  H       4.137995      0.206473      0.544308
  H       1.728811     -4.142379      0.315716
  S      -0.015902     -1.818374     -0.634702
  O       2.171948      1.360448     -1.058534
  C      -0.623974      0.863883     -1.247701
  C      -1.993788      1.076135     -0.760606
  C      -2.162481      0.938799      0.625438
  H      -1.391675      0.438949      1.197467
  C      -3.228131      1.544007      1.274917
  H      -3.287095      1.499425      2.355384
  C      -4.172989      2.255620      0.544650
  H      -4.969295      2.781094      1.055651
  C      -4.072166      2.312138     -0.842671
  H      -4.819847      2.846157     -1.415414
  C      -2.984006      1.741464     -1.492872
  H      -2.885032      1.846445     -2.566903
  H      -0.150761      1.770021     -1.621621
