27
Coordinates from ORCA-job nebrestart_MEP E -1050.835265447791
  C       3.484763     -3.120445      1.008086
  C       4.332895     -2.034380      0.776073
  C       3.841732     -0.895615      0.156898
  C       2.492549     -0.836047     -0.184275
  C       2.133014     -3.065231      0.687842
  C       1.634096     -1.892056      0.131380
  C       1.814810      0.290877     -0.852502
  C       0.327208      0.073064     -0.787692
  H       3.884604     -4.018806      1.462440
  H       5.367448     -2.084455      1.088852
  H       4.472174     -0.039524     -0.048823
  H       1.486425     -3.910082      0.887577
  S      -0.066361     -1.540145     -0.184609
  O       2.348438      1.271662     -1.330823
  C      -0.524339      1.076267     -1.052704
  C      -1.914404      1.257707     -0.629419
  C      -2.284733      0.909560      0.677459
  H      -1.577983      0.380859      1.302637
  C      -3.503444      1.310286      1.202630
  H      -3.744821      1.076649      2.231955
  C      -4.392538      2.038135      0.419217
  H      -5.329054      2.383061      0.838379
  C      -4.063246      2.339768     -0.898606
  H      -4.761489      2.890429     -1.516192
  C      -2.830445      1.967508     -1.416499
  H      -2.567495      2.239015     -2.431739
  H      -0.059805      1.931942     -1.537542
