27
Coordinates from ORCA-job nebrestart_MEP E -1050.830931457143
  C       4.012036     -2.664562      0.511611
  C       4.176928     -1.329955      0.895299
  C       3.199743     -0.395894      0.590572
  C       2.051122     -0.808404     -0.081569
  C       2.881025     -3.082741     -0.179677
  C       1.900778     -2.141043     -0.473544
  C       0.895938      0.044637     -0.418717
  C      -0.220411     -0.826188     -0.934310
  H       4.773750     -3.390988      0.766782
  H       5.063584     -1.029908      1.437889
  H       3.296179      0.642713      0.882236
  H       2.762297     -4.118782     -0.470262
  S       0.383191     -2.459638     -1.311282
  O       0.837762      1.248428     -0.272516
  C      -1.535644     -0.556451     -0.909193
  C      -2.191864      0.688926     -0.467989
  C      -3.046409      0.616725      0.638990
  H      -3.199902     -0.336949      1.129993
  C      -3.654238      1.757614      1.143130
  H      -4.274639      1.689813      2.027713
  C      -3.456843      2.982422      0.514622
  H      -3.932981      3.873639      0.904034
  C      -2.646674      3.055843     -0.613843
  H      -2.498402      4.005330     -1.112541
  C      -2.006103      1.921387     -1.096510
  H      -1.358300      1.990404     -1.959231
  H      -2.211920     -1.376379     -1.141690
