27
Coordinates from ORCA-job nebrestart_MEP E -1050.831883727512
  C       3.820714     -3.021554      0.640931
  C       4.029702     -1.814924      1.316836
  C       3.193662     -0.736759      1.075685
  C       2.151811     -0.873193      0.160511
  C       2.808335     -3.155939     -0.302561
  C       1.980540     -2.064888     -0.547399
  C       1.110522      0.132113     -0.113838
  C       0.070369     -0.456979     -1.027639
  H       4.452082     -3.872833      0.864081
  H       4.832039     -1.731809      2.038269
  H       3.321148      0.208440      1.588382
  H       2.653732     -4.097453     -0.813500
  S       0.635417     -2.015721     -1.681956
  O       1.107448      1.274328      0.301763
  C      -1.141254      0.031162     -1.366249
  C      -1.965010      1.051435     -0.717537
  C      -1.913877      1.284387      0.664859
  H      -1.178935      0.769368      1.265108
  C      -2.819059      2.137365      1.274165
  H      -2.770708      2.288462      2.345774
  C      -3.788878      2.791982      0.518545
  H      -4.498589      3.452018      1.001110
  C      -3.850472      2.579227     -0.854421
  H      -4.604411      3.079867     -1.448647
  C      -2.958126      1.706201     -1.462407
  H      -3.033652      1.522206     -2.528198
  H      -1.644549     -0.466509     -2.191666
