27
Coordinates from ORCA-job nebrestart_MEP E -1050.844347494624
  C       3.667651     -3.006348      1.126764
  C       4.439797     -2.254992      0.237124
  C       3.870998     -1.182460     -0.431115
  C       2.535019     -0.873261     -0.201749
  C       2.332790     -2.700480      1.358437
  C       1.765794     -1.625408      0.687482
  C       1.775669      0.223716     -0.821260
  C       0.364753      0.202055     -0.295699
  H       4.114590     -3.843041      1.646908
  H       5.476882     -2.512300      0.073147
  H       4.438675     -0.579008     -1.126736
  H       1.749854     -3.293118      2.050748
  S       0.137698     -1.078526      0.828544
  O       2.196426      1.028517     -1.627976
  C      -0.508433      1.126386     -0.733823
  C      -1.901246      1.354962     -0.418475
  C      -2.645350      0.576042      0.483512
  H      -2.186389     -0.255478      0.995200
  C      -3.978835      0.860072      0.732358
  H      -4.533888      0.247732      1.430673
  C      -4.604710      1.924481      0.091168
  H      -5.645688      2.141517      0.289247
  C      -3.884627      2.707506     -0.805512
  H      -4.363417      3.536857     -1.308298
  C      -2.551993      2.425439     -1.055649
  H      -1.993050      3.035739     -1.753705
  H      -0.068971      1.813398     -1.451314
